/---------------------------------------------------------------------
/ TELEMAC2D Version v7p1 22-Aug-2017
/ Lagoon with culvert
/---------------------------------------------------------------------



/---------------------------------------------------------------------
/ BOUNDARY CONDITIONS
/---------------------------------------------------------------------

STAGE-DISCHARGE CURVES =0

OPTION FOR CULVERTS =1

VERTICAL STRUCTURES = YES

MASS-LUMPING ON H =1

NUMBER OF CULVERTS   =14

/---------------------------------------------------------------------
/ EQUATIONS
/---------------------------------------------------------------------

AIR PRESSURE                         =true

LAW OF BOTTOM FRICTION               =4

ROUGHNESS COEFFICIENT OF BOUNDARIES  =0.025

FRICTION COEFFICIENT                 =0.025

BOTTOM SMOOTHINGS                    =1

TURBULENCE MODEL                     =3

/---------------------------------------------------------------------
/ EQUATIONS, BOUNDARY CONDITIONS
/---------------------------------------------------------------------

OPTION FOR LIQUID BOUNDARIES =1

/---------------------------------------------------------------------
/ EQUATIONS, INITIAL CONDITIONS
/---------------------------------------------------------------------

INITIAL CONDITIONS ='CONSTANT ELEVATION'

INITIAL ELEVATION  =-2.09


/---------------------------------------------------------------------
/ EQUATIONS, SOURCE TERMS
/---------------------------------------------------------------------

/VALUES OF THE TRACERS AT THE SOURCES =50;50;50;50;50;50

/ABSCISSAE OF SOURCES = 435279.281250;435303.718750;435345.000000;
/435376.531250;435409.375000;435433.750000

/ORDINATES OF SOURCES = 5715285.000000;5715309.000000;5715223.500000;
/5715240.500000;5715160.500000;5715184.500000

/VELOCITIES OF THE SOURCES ALONG X    =1.;1.;1.;1.;1.;1.

/VELOCITIES OF THE SOURCES ALONG Y    =1.;1.;1.;1.;1.;1.

/WATER DISCHARGE OF SOURCES           =0.;0.;0.;0.;0.;0.

/---------------------------------------------------------------------
/ INPUT-OUTPUT, FILES
/---------------------------------------------------------------------

/FORMATTED DATA FILE 1     ='TurbineHillchart.txt'

/FORMATTED RESULTS FILE     = 'record.txt'

CULVERTS DATA FILE        ='culvertdata.txt'

GEOMETRY FILE            ='SLF-Simple-Lagoon.slf'

RESULTS FILE             ='r2d_Simple_Lagoon.slf'

/NAMES OF TRACERS=
/  'Tracer 1';'Tracer 2';'Tracer 3';'Tracer 4';'Tracer 5';'Tracer 6';
/ 'Tracer 7';'Tracer 8';'Tracer 9';'Tracer 10'

LIQUID BOUNDARIES FILE   ='LIQ-Simple-Lagoon.liq'

BOUNDARY CONDITIONS FILE ='CLI-Simple-Lagoon.cli'

FORTRAN FILE = 'user_fortran'

/---------------------------------------------------------------------
/ INPUT-OUTPUT, GRAPHICS AND LISTING
/---------------------------------------------------------------------

MASS-BALANCE                    =true

VARIABLES FOR GRAPHIC PRINTOUTS =U,V,B,H,L,S,n

LISTING PRINTOUT PERIOD         =30
GRAPHIC PRINTOUT PERIOD         =225

INFORMATION ABOUT SOLVER        = true

/PRECONDITIONING                 = 2


/---------------------------------------------------------------------
/ INPUT-OUTPUT, INFORMATION
/---------------------------------------------------------------------

TITLE ='Simple Lagoon with culvert'

/---------------------------------------------------------------------
/ NUMERICAL PARAMETERS
/---------------------------------------------------------------------

DISCRETIZATIONS IN SPACE       =12;11

CONTINUITY CORRECTION          =true

ORIGINAL DATE OF TIME          =2012;01;17

ORIGINAL HOUR OF TIME          =17;00;00

NUMBER OF PRIVATE ARRAYS       =1

TREATMENT OF THE LINEAR SYSTEM =2

/NUMBER OF TIME STEPS           =171000
/NUMBER OF TIME STEPS           =85500
NUMBER OF TIME STEPS           =43200

FINITE VOLUME SCHEME           =0

TIME STEP                      =2

/DURATION                       =342000
/DURATION                       =171000
DURATION                       =129600

SUPG OPTION                    =1;1;1;1

/PARALLEL PROCESSORS            =8

/---------------------------------------------------------------------
/ NUMERICAL PARAMETERS, SOLVER
/---------------------------------------------------------------------

SOLVER ACCURACY =1.E-5


/---------------------------------------------------------------------
/ NUMERICAL PARAMETERS, VELOCITY-CELERITY-HIGHT
/---------------------------------------------------------------------

IMPLICITATION FOR VELOCITY =0.6

IMPLICITATION FOR DEPTH    =0.6


/---------------------------------------------------------------------
/ PHYSICAL CONSTANTS
/---------------------------------------------------------------------

WATER DENSITY =1020.
